{"summary": "post-translational modifications (PTMs) involve the addition of a chemical group to the protein after it has been generated by the translational machinery. a large number of PTMs such as phosphorylation [1], methylation [2], acetylation [3], and glycosylation [4] are known and they regulate various biol processes. the SUMO protein forms an isopeptide bond with substrate proteins. sumoylation is catalyzed by SUMO ligases such as protein inhibitor of activated STAT (PIAS), Ran-bingding protein 2 (RanBP2), or human PcG protein Pc2. reticuloendotheliosis viral oncogene homolog A of Bombyx mori (BmRelA) remains unknown. a proteomic approach is reported for identification of substrates modified by SUMOylation. this shed light on the crucial process of protein sumoylation in B. mori. pre-immune serum was used as the primary antibody. the nuclei were stained with 4',6-diamidino-2-phenylindol (DAPI) the samples were viewed using a laser fluorescence microscope. eGFP-SUMO and ubiquitin carrier protein 9 were expressed in baculovirus vectors and subjected to GFP immunoprecipitation. the immunoprecipitated proteins were then separated by SDS-PAGE and subjected to western blot analysis. the isolated SUMOylated proteins from eGFP-SUMO and BmUBC9 preparation were identified by LC\u2013ESI-MS/MS. protein ID Description Number of Peptides BGIBMGA000115-PA BUD13 homolog 2 BGIBMGA000511-PA 3-hydroxyacyl-CoA dehydrogenase 5 BGIBMGA000828-PA low quality protein: DNA replication licensing factor Mcm6-like 2 BGIBMGA001206-PA chaperonin containing t-complex polypeptide 1 beta subunit 2 BGIBMGA001241-PA heat shock protein 75 kDa ribosomal protein L35 3 BGIBMGA006462-PA eIF2B-alpha protein 2 BGIBMGA006751-PA GTP-binding nuclear protein Ran 5 BGIBMGA006980-PA predicted: nucleolar protein 12-like 3 BGIBMGA007311-PA 40S ribosomal protein SA 3 BGIBMGA007460-PA predicted: serine/threonine-protein phosphatase 2A catalytic chain 12 BGIBMGA012976-PA predicted: serine/threonine-protein kinase TAO3-like 3 BGIBMGA013021-PA fructose 1,6-bisphosphate aldolase 22 BGIBMGA013063-PA predicted: malate dehydrogenase, mitochondrial-like 8 BGIBMGA013133-PA predicted: asparagine\u2014tRNA ligase, cytoplasmic-like 5 B u5 small nuclear ribonucleoprotein 200 kDa helicase-like 4 Bm_nscaf2930_118 predicted: ADP-ribosylation factor 2-like 2 Bm_nscaf2970_069 mitochondrial matrix protein p32 2 Bm_nscaf2970_070 predicted: zinc finger CCHC domain-containing protein 4-like isoform X1 6 Bm_nscaf2993_193 predicted SUMO and His-tagged candidates were co-expressed in Drosophila S2 cells. cells were processed for immunoprecipitation with anti-Flag magnetic beads. cells were analyzed by western blotting using anti-His antibody. the majority of the proteins were functionally categorized to GO terms. under the \u201cbiological process\u201d category, the proteins were involved in \u201ccellular process\u201d (19.39%), \u201cmetabolic process\u201d (16.48%), \u201csingle organism process\u201d (9.2%), and \u201cbiological regulation\u201d (8.05%). under the \u201ccellular component\u201d category, the identified proteins were mainly involved in \u201cbinding\u201d and \u201ccatalytic activity\u201d (35.8%) a special baculovirus vector can express foreign proteins under different promoters. the control construct could express eGFP-SUMO, but lacked BmUbc9. the results confirm that the SUMO-Ubc9 fusion construct could be useful. eGFP-Bmsumo and PIAS were found to coimmunoprecipitate in the presence of eGFP-Bmubc9 and eGFP-sumo plus BmUbc9. some of the homologous proteins identified in this study have been previously reported to be SUMOylated. recombinant baculovirus of B. mori nucleopolyhedrovirus (BmNPV) was used to express eGFP-sumo plus BmUbc9. some viral proteins such as the chicken embryo lethal orphan adenovirus Gam1 protein [42,43], the human papillomavirus (HPV) E6 protein [44,45] and the Epstein-Barr virus (LMP1) [48] can 203 proteins identified with one or more peptides, 74% contained at least one SUMOylation site, and 13% contained at least one SUMO-interaction Motifs (SIM) adenovirus early region 1B 55-kDa protein (E1B-55K) protein were also identified. immunofluorescence analysis was carried out using a confocal laser fluorescence microscope. fluorescence was observed across the entire cell but appeared as aggregated dots in the nucleus. SUMO is found to be enriched in the nuclei of cultured Drosophila S2 and pole cells. eGFP-SUMO, eGFP-SUMO and ubiquitin carrier protein 9 were isolated with anti-GFP microbeads. the eluate was subjected to SDS-PAGE followed by western blotting with an anti-GFP antibody. d proteins were electrophoresed for a short time on SDS-PAGE. the bands were cut and processed for LC\u2013ESI-MS/MS analysis. in total, 68 proteins that were identified by two or more peptides were considered candidates for SUMOylation. thiol peroxiredoxin 2 BGIBMGA002620-PA predicted: sequestosome-1-like isoform X2 3 BGIBMGA002755-PA SUMO-1 activating enzyme 13 BGIBMGA003351-PA minichromosome maintenance complex component 7 2 BGIBMGA003361-PA predicted: low quality protein: importin-5-like 2 BGIBMGA003901-PA predicted: cyclin-related protein FAM58A- BMGA007720-PA serine protease inhibitor 2 4 BGIBMGA008295-PA vacuolar ATP synthase catalytic subunit A 2 BGIBMGA008555-PA AMP dependent coa ligase 2 BGIBMGA009250-PA predicted: pre-mRNA-processing-splicing factor 8-like 2 BGIBMGA010005-PA predicted: mediator of RNA polymerase II transcription subunit 10-like iso 3 BGIBMGA014589-PA phosphate transport protein 2 Bm_nscaf2511_205 predicted: UPF0396 protein CG6066-like isoform X1 3 Bm_nscaf2681_31 predicted: long-chain-fatty-acid\u2014CoA ligase 4-like isoform X1 3 Bm_nscaf2810_03 hypothetical protein KGM_10301 3 Bm_nscaf2825_ 2 Bm_nscaf3031_268 DNA topoisomerase 2 6 Bm_nscaf481_60 protein LTV1 homolog 2 BGIBMGA010396-PA arginine/serine-rich splicing factor 7 2 BGIBMGA010668-PA predicted: barrier-to-autointegration factor B-like 3 2.1.4. cell lysates were immunoprecipitated with anti-Flag magnetic beads. cell lysates were immunoprecipitated with anti-His antibody. the resultant proteins were functionally categorized to GO terms. the number of proteins mapped to GO terms is shown on the right axis. 46 of the identified proteins were involved in 76 pathways. pathways that play a role in metabolism, spliceosome and ribosome functions, and in RNA transport showed the highest number of matches. no fluorescence was detected in BmN cells. the cells were treated with anti-BmSUMO antibody. the fluorescent signal was developed by incubating the nuclei. eGFP, eGFP-SUMO and ubiquitin carrier protein 9 were expressed in baculovirus vectors and subjected to GFP immunoprecipitation. the immunoprecipitated proteins were then separated by SDS-PAGE and subjected to western blot analysis. MS results of the SUMO proteins present in both control eGFP and eGFP-SUMO preparations were excluded from Table 1. protein ID Description Number of Peptides BGIBMGA000115-PA BUD13 homolog 2 BGIBMGA000511-PA 3-hydroxyacyl-CoA dehydrogenase 5 BGIBMGA000828-PA chaperonin containing t-complex polypeptide 1 beta subunit 2 BGIBMGA001241 non-ATPase regulatory subunit 2-like 2 BGIBMGA005425-PA ubiquitin-conjugating enzyme E2 23 BGIBMGA005684-PA 60S ribosomal protein L38 4 BGIBMGA005928-PA ribosomal protein L35 3 BGIBMGA006462-PA eIF2B-alpha protein 2 BGIBMGA006751-PA GTP-binding nuclear protein Ran 5 BGIBMGA ating enzyme subunit 2-like 17 BGIBMGA012126-PA predicted: protein timeless homolog 2 BGIBMGA012935-PA clathrin heavy chain 12 BGIBMGA012976-PA predicted: serine/threonine-protein kinase TAO3-like 3 BGIBMGA013021-PA fructose 1,6-bisphosphate aldolase 22 BGIBMGA013063-PA predicted: malate dehydrogena nscaf2887_111 predicted: ATP-dependent RNA helicase DDX3X isoform X1 10 Bm_nscaf2888_123 heterogeneous nuclear ribonucleoprotein A1 2 Bm_nscaf2916_07 predicted: ADP-ribosylation factor 2-like 2 Bm_nscaf2970_069 mitochondrial matrix protein p32 2 Bm_nscaf2970_ flag-tagged SUMO and His-tagged candidates were co-expressed in Drosophila S2 cells. cell lysates were immunoprecipitated with anti-Flag magnetic beads and analyzed by western blotting using anti-His antibody. resultant proteins were functionally categorized based on universal gene ontology (GO) annotation terms. the majority of the proteins (59 of 68) were functionally categorized to GO terms. under the \u201cbiological process\u201d category, the proteins were involved in \u201ccellular process\u201d (19.39%), \u201cmetabolic process\u201d (16.48%), \u201csingle organism process\u201d (9.2%), and \u201cbiological regulation\u201d (8.05%). the SUMO-Ubc9 fusion protein has a higher conjugating activity for SIM-containing targets such as Sp100 and human cytomegalovirus immediate-early 2 (IE2) protein [26]. the control construct that could express eGFP-SUMO, but lacked BmUbc9, was also used for immunoprecipition. some homologous proteins identified in this study have been previously reported to be SUMOylated. for example, the endoplasmic reticulum-resident chaperone calreticulin is known to be sumoylated. the endoribonuclease Dicer, which cleaves the stem-loop structure from pre-miRNAs, has also been shown to be SUMOylated. several ribosomal proteins and HSPs have been identified as SUMOylation substrates. recombinant baculovirus of B. mori nucleopolyhedrovirus (BmNPV) was used to express eGFP-sumo plus BmUbc9. some viruses encode sumoylation mimicking enzymes, such as the Kaposi\u2019s sarcoma-associated herpes virus (KSHV) K-bZIP protein and the adenovirus early region 1B 55-kDa protein (E1B-55K) protein. infection of Spodoptera frugiperda cells by AcMNPV leads to a decrease in the amount of free SUMO, coupled with an increase in the amount of SUMO- the Bmsumo gene was amplified with the forward primer BmsumoF (5'-GTCGACgctgatgaaagaaggga-3') and the reverse primer BmsumoR (5'-CTGCAGttactccccggtgctg-3') the recombinant bacmid eGFP-Bmsumo + BmUbc9 was transfected into BmN cells for amplification. cells were lysed with 1 mL ice-cold lysis buffer (150 mM NaCl, 1% Triton X-100, 50 mM Tris\u2013HCl (pH 8.0), 10 mM N-Ethylmaleimide (NEM) and 1 protease inhibitor cocktail. the incubated mixtures were then applied onto the column and washed with 10 200 L washing buffer 1 (150 mM NaCl, 1% Western Blotting Aliquots of each input lysate and both the eGFP-Bmsumo + BmUbc9 and control preparations were subjected to SDS-PAGE. the protein samples were transferred onto a PVDF membrane (Immobilon-P, Millipore, Merck KGaA, Darmstadt, Germany) after electrophoresis, the membrane was washed three times with PBS-T for 5 min. the cells were washed three times with 1 PBS and fixed in methanol:acetone (1:1) on ice for 15 min. the cells were then incubated with protein-G fused with enhanced green fluorescent protein (eGFP) and stained with the nucleus-specific stain DAPI (Sigma, Shanghai, China) 10 L of the supernatant was loaded onto a 2-cm C18 trap column in a LC-20AD nanoHPLC (Shimadzu, Kyoto, Japan) by using the autosampler. the samples were loaded at 8 L/min for 4 min, followed by a 2-min linear gradient to 80% buffer B. ion count of 20,000 in the MS survey scan with a dynamic exclusion duration of 15 s. automatic gain control (AGC) was used to optimize the spectra generated by the Orbitrap. m/z scan range was 350 to 2000 Da. all PCR fragments were inserted into pMT/V5-His B vector. 1 107 of S2 cells were transfected with 1 g of each SUMO and SUMOyalation candidate constructions. 0.5 mM CuSO4 was added to the medium to induce protein expression. raw data files acquired from the Orbitrap were converted into MGF files using Proteome Discoverer 1.2 (PD 1.2, Thermo, Pittsburgh, PA, USA) for protein identification, a mass tolerance of 20 ppm was permitted for intact peptide masses. the BmUbc9 gene was amplified with the forward primer BmsumoF (5'-GTCGACgctgatgaaagaagggaaggga-3') and the reverse primer BmsumoR (5'-CTGCAGttactcccctgctg-3') the fragments were cloned into a modified pFastBac Dual vector (Invitrogen, Carlsbad, CA, USA cells were lysed with 1 mL ice-cold lysis buffer (150 mM NaCl, 1% Triton X-100, 50 mM Tris\u2013HCl (pH 8.0), 10 mM N-Ethylmaleimide (NEM) and 1 protease inhibitor cocktail. cell supernatants were collected and incubated with 50 L anti-GFP MicroBeads for 30 min on ice. Western Blotting Aliquots of each input lysate and both the eGFP-Bmsumo + BmUbc9 and control preparations were subjected to SDS-PAGE. the protein samples were transferred onto a PVDF membrane (Immobilon-P, Millipore, Merck KGaA, Darmstadt, Germany) by using the Trans-Blot Cell apparatus (Bio-Rad, Shanghai, China) the membrane was washed three times with the cells were washed three times with 1 PBS and fixed in methanol:acetone (1:1) on ice for 15 min. the cells were then incubated with protein-G fused with enhanced green fluorescent protein (eGFP) and stained with the nucleus-specific stain DAPI (Sigma, Shanghai, China) for 1 h. 10 L of the supernatant was loaded onto a 2-cm C18 trap column in a LC-20AD nanoHPLC (Shimadzu, Kyoto, Japan) the samples were loaded at 8 L/min for 4 min. gradient of 2% to 35% buffer B was run for 44 min at 300 nL/min. automatic gain control (AGC) was used to optimize the spectra generated by the Orbitrap. the target for full MS was 3 106 and 1 105 for MS2. all PCR fragments were inserted into pMT/V5-His B vector. 1 107 of S2 cells were transfected with 1 g of each SUMO and SUMOyalation candidate constructions. cells were collected and washed with PBS. raw data files acquired from the Orbitrap were converted into MGF files. protein identification was performed using the Mascot search engine. a mass tolerance of 20 ppm was permitted for intact peptide masses. 68 candidate SUMOylated proteins identified from the proteome. 59 proteins were functionally categorized to GO terms. KEGG pathways analysis showed 46 proteins involved in 76 pathways."}